<?xml version="1.0" encoding="utf-8"?>
<net.appkraft.parallax.ParallaxScrollView xmlns:android="http://schemas.android.com/apk/res/android"
    xmlns:app="http://schemas.android.com/apk/res-auto"
    xmlns:float="http://schemas.android.com/apk/res-auto"
    android:id="@+id/scrollView1"
    android:layout_width="match_parent"
    android:layout_height="match_parent"
    android:overScrollMode="never"
    app:zoomRatio="1">


    <LinearLayout
        android:layout_width="match_parent"
        android:layout_height="match_parent"
        android:focusable="false"
        android:focusableInTouchMode="true"
        android:orientation="vertical">

        <LinearLayout
            android:layout_width="match_parent"
            android:layout_height="match_parent"
            android:orientation="vertical">

            <ImageView
                android:id="@+id/imageView1"
                android:layout_width="match_parent"
                android:layout_height="180dp"
                android:src="@drawable/car_cover" />


            <LinearLayout
                android:layout_width="match_parent"
                android:layout_height="match_parent"
                android:layout_marginLeft="20dp"
                android:layout_marginRight="20dp"
                android:layout_marginTop="10dp"
                android:orientation="vertical">

                <LinearLayout
                    android:layout_width="match_parent"
                    android:layout_height="wrap_content"
                    android:orientation="horizontal">

                    <com.wrapp.floatlabelededittext.FloatLabeledEditText
                        android:layout_width="match_parent"
                        android:layout_height="wrap_content"
                        android:layout_weight="1"
                        float:fletPadding="15dp">

                        <EditText
                            android:id="@+id/title"
                            android:layout_width="match_parent"
                            android:layout_height="wrap_content"
                            android:hint="Name" />
                    </com.wrapp.floatlabelededittext.FloatLabeledEditText>

                    <de.hdodenhof.circleimageview.CircleImageView
                        android:id="@+id/type_pic"
                        android:layout_width="60dp"
                        android:layout_height="60dp"
                        android:layout_gravity="right|bottom"
                        android:src="@drawable/ic_contact" />

                </LinearLayout>

                <com.wrapp.floatlabelededittext.FloatLabeledEditText
                    android:layout_width="match_parent"
                    android:layout_height="wrap_content"
                    float:fletPadding="15dp">

                    <EditText
                        android:id="@+id/number"
                        android:layout_width="match_parent"
                        android:layout_height="wrap_content"
                        android:hint="Phone number"
                        android:numeric="decimal" />
                </com.wrapp.floatlabelededittext.FloatLabeledEditText>


            </LinearLayout>


        </LinearLayout>
    </LinearLayout>
</net.appkraft.parallax.ParallaxScrollView>