<?xml version="1.0" encoding="utf-8"?>
<net.appkraft.parallax.ParallaxScrollView xmlns:android="http://schemas.android.com/apk/res/android"
    xmlns:app="http://schemas.android.com/apk/res-auto"
    android:id="@+id/scrollView1"
    android:layout_width="match_parent"
    android:layout_height="match_parent"
    android:overScrollMode="never"
    app:zoomRatio="1">


    <LinearLayout
        android:layout_width="match_parent"
        android:layout_height="match_parent"
        android:focusable="false"
        android:focusableInTouchMode="true"
        android:orientation="vertical">

        <LinearLayout
            android:layout_width="match_parent"
            android:layout_height="match_parent"
            android:orientation="vertical">

            <ImageView
                android:id="@+id/imageView1"
                android:layout_width="match_parent"
                android:layout_height="120dp"
                android:src="@drawable/car_cover" />

        </LinearLayout>
    </LinearLayout>
</net.appkraft.parallax.ParallaxScrollView>